#### CIF created by Crystallographica 2 ####

data_ZincDigalliumOxide

_audit_creation_method                    'Crystallographica 2' 
_cell_angle_alpha                         90 
_cell_angle_beta                          90 
_cell_angle_gamma                         90 
_cell_formula_units_Z                     8 
_cell_length_a                            8.33 
_cell_length_b                            8.33 
_cell_length_c                            8.33 
_cell_volume                              578.01 
_cgraph_comments                         'The oxygen parameter of the spinel Zn Ga2 O4
'
_cgraph_title                            'Zinc Digallium Oxide'
_chemical_formula_sum                    'Zn Ga2 O4'
_symmetry_space_group_name_H-M           'F d -3 m'
_symmetry_space_group_name_Hall          ' F 4d 2 3 -1d'

loop_
        _symmetry_equiv_pos_as_xyz
        'x, y, z'
        'x, y+1/2, z+1/2'
        'x+1/2, y, z+1/2'
        'x+1/2, y+1/2, z'
        '-x+1/4, -y+1/4, -z+1/4'
        '-x+1/4, -y-1/4, -z-1/4'
        '-x-1/4, -y+1/4, -z-1/4'
        '-x-1/4, -y-1/4, -z+1/4'
        '-y+1/4, x+1/4, z+1/4'
        '-y+1/4, x-1/4, z-1/4'
        '-y-1/4, x+1/4, z-1/4'
        '-y-1/4, x-1/4, z+1/4'
        '-x, -y, z'
        '-x, -y+1/2, z+1/2'
        '-x+1/2, -y, z+1/2'
        '-x+1/2, -y+1/2, z'
        'y+1/4, -x+1/4, z+1/4'
        'y+1/4, -x-1/4, z-1/4'
        'y-1/4, -x+1/4, z-1/4'
        'y-1/4, -x-1/4, z+1/4'
        'x+1/4, -z+1/4, y+1/4'
        'x+1/4, -z-1/4, y-1/4'
        'x-1/4, -z+1/4, y-1/4'
        'x-1/4, -z-1/4, y+1/4'
        'x, -y, -z'
        'x, -y+1/2, -z+1/2'
        'x+1/2, -y, -z+1/2'
        'x+1/2, -y+1/2, -z'
        'x+1/4, z+1/4, -y+1/4'
        'x+1/4, z-1/4, -y-1/4'
        'x-1/4, z+1/4, -y-1/4'
        'x-1/4, z-1/4, -y+1/4'
        'z+1/4, y+1/4, -x+1/4'
        'z+1/4, y-1/4, -x-1/4'
        'z-1/4, y+1/4, -x-1/4'
        'z-1/4, y-1/4, -x+1/4'
        '-x, y, -z'
        '-x, y+1/2, -z+1/2'
        '-x+1/2, y, -z+1/2'
        '-x+1/2, y+1/2, -z'
        '-z+1/4, y+1/4, x+1/4'
        '-z+1/4, y-1/4, x-1/4'
        '-z-1/4, y+1/4, x-1/4'
        '-z-1/4, y-1/4, x+1/4'
        'y, -x, -z'
        'y, -x+1/2, -z+1/2'
        'y+1/2, -x, -z+1/2'
        'y+1/2, -x+1/2, -z'
        '-y, x, -z'
        '-y, x+1/2, -z+1/2'
        '-y+1/2, x, -z+1/2'
        '-y+1/2, x+1/2, -z'
        '-x, z, -y'
        '-x, z+1/2, -y+1/2'
        '-x+1/2, z, -y+1/2'
        '-x+1/2, z+1/2, -y'
        '-x, -z, y'
        '-x, -z+1/2, y+1/2'
        '-x+1/2, -z, y+1/2'
        '-x+1/2, -z+1/2, y'
        '-z, -y, x'
        '-z, -y+1/2, x+1/2'
        '-z+1/2, -y, x+1/2'
        '-z+1/2, -y+1/2, x'
        'z, -y, -x'
        'z, -y+1/2, -x+1/2'
        'z+1/2, -y, -x+1/2'
        'z+1/2, -y+1/2, -x'
        'z, x, y'
        'z, x+1/2, y+1/2'
        'z+1/2, x, y+1/2'
        'z+1/2, x+1/2, y'
        'y, z, x'
        'y, z+1/2, x+1/2'
        'y+1/2, z, x+1/2'
        'y+1/2, z+1/2, x'
        '-y, -z, x'
        '-y, -z+1/2, x+1/2'
        '-y+1/2, -z, x+1/2'
        '-y+1/2, -z+1/2, x'
        'z, -x, -y'
        'z, -x+1/2, -y+1/2'
        'z+1/2, -x, -y+1/2'
        'z+1/2, -x+1/2, -y'
        '-y, z, -x'
        '-y, z+1/2, -x+1/2'
        '-y+1/2, z, -x+1/2'
        '-y+1/2, z+1/2, -x'
        '-z, -x, y'
        '-z, -x+1/2, y+1/2'
        '-z+1/2, -x, y+1/2'
        '-z+1/2, -x+1/2, y'
        '-z, x, -y'
        '-z, x+1/2, -y+1/2'
        '-z+1/2, x, -y+1/2'
        '-z+1/2, x+1/2, -y'
        'y, -z, -x'
        'y, -z+1/2, -x+1/2'
        'y+1/2, -z, -x+1/2'
        'y+1/2, -z+1/2, -x'
        '-z+1/4, -x+1/4, -y+1/4'
        '-z+1/4, -x-1/4, -y-1/4'
        '-z-1/4, -x+1/4, -y-1/4'
        '-z-1/4, -x-1/4, -y+1/4'
        '-y+1/4, -z+1/4, -x+1/4'
        '-y+1/4, -z-1/4, -x-1/4'
        '-y-1/4, -z+1/4, -x-1/4'
        '-y-1/4, -z-1/4, -x+1/4'
        'y+1/4, z+1/4, -x+1/4'
        'y+1/4, z-1/4, -x-1/4'
        'y-1/4, z+1/4, -x-1/4'
        'y-1/4, z-1/4, -x+1/4'
        '-z+1/4, x+1/4, y+1/4'
        '-z+1/4, x-1/4, y-1/4'
        '-z-1/4, x+1/4, y-1/4'
        '-z-1/4, x-1/4, y+1/4'
        'y+1/4, -z+1/4, x+1/4'
        'y+1/4, -z-1/4, x-1/4'
        'y-1/4, -z+1/4, x-1/4'
        'y-1/4, -z-1/4, x+1/4'
        'z+1/4, x+1/4, -y+1/4'
        'z+1/4, x-1/4, -y-1/4'
        'z-1/4, x+1/4, -y-1/4'
        'z-1/4, x-1/4, -y+1/4'
        'z+1/4, -x+1/4, y+1/4'
        'z+1/4, -x-1/4, y-1/4'
        'z-1/4, -x+1/4, y-1/4'
        'z-1/4, -x-1/4, y+1/4'
        '-y+1/4, z+1/4, x+1/4'
        '-y+1/4, z-1/4, x-1/4'
        '-y-1/4, z+1/4, x-1/4'
        '-y-1/4, z-1/4, x+1/4'
        'y+1/4, x+1/4, -z+1/4'
        'y+1/4, x-1/4, -z-1/4'
        'y-1/4, x+1/4, -z-1/4'
        'y-1/4, x-1/4, -z+1/4'
        '-y+1/4, -x+1/4, -z+1/4'
        '-y+1/4, -x-1/4, -z-1/4'
        '-y-1/4, -x+1/4, -z-1/4'
        '-y-1/4, -x-1/4, -z+1/4'
        '-x+1/4, z+1/4, y+1/4'
        '-x+1/4, z-1/4, y-1/4'
        '-x-1/4, z+1/4, y-1/4'
        '-x-1/4, z-1/4, y+1/4'
        '-x+1/4, -z+1/4, -y+1/4'
        '-x+1/4, -z-1/4, -y-1/4'
        '-x-1/4, -z+1/4, -y-1/4'
        '-x-1/4, -z-1/4, -y+1/4'
        'z+1/4, -y+1/4, x+1/4'
        'z+1/4, -y-1/4, x-1/4'
        'z-1/4, -y+1/4, x-1/4'
        'z-1/4, -y-1/4, x+1/4'
        '-z+1/4, -y+1/4, -x+1/4'
        '-z+1/4, -y-1/4, -x-1/4'
        '-z-1/4, -y+1/4, -x-1/4'
        '-z-1/4, -y-1/4, -x+1/4'
        'x+1/4, y+1/4, -z+1/4'
        'x+1/4, y-1/4, -z-1/4'
        'x-1/4, y+1/4, -z-1/4'
        'x-1/4, y-1/4, -z+1/4'
        '-x+1/4, y+1/4, z+1/4'
        '-x+1/4, y-1/4, z-1/4'
        '-x-1/4, y+1/4, z-1/4'
        '-x-1/4, y-1/4, z+1/4'
        'x+1/4, -y+1/4, z+1/4'
        'x+1/4, -y-1/4, z-1/4'
        'x-1/4, -y+1/4, z-1/4'
        'x-1/4, -y-1/4, z+1/4'
        '-y, -x, z'
        '-y, -x+1/2, z+1/2'
        '-y+1/2, -x, z+1/2'
        '-y+1/2, -x+1/2, z'
        'y, x, z'
        'y, x+1/2, z+1/2'
        'y+1/2, x, z+1/2'
        'y+1/2, x+1/2, z'
        'x, -z, -y'
        'x, -z+1/2, -y+1/2'
        'x+1/2, -z, -y+1/2'
        'x+1/2, -z+1/2, -y'
        'x, z, y'
        'x, z+1/2, y+1/2'
        'x+1/2, z, y+1/2'
        'x+1/2, z+1/2, y'
        '-z, y, -x'
        '-z, y+1/2, -x+1/2'
        '-z+1/2, y, -x+1/2'
        '-z+1/2, y+1/2, -x'
        'z, y, x'
        'z, y+1/2, x+1/2'
        'z+1/2, y, x+1/2'
        'z+1/2, y+1/2, x'

loop_
        _atom_site_label
        _atom_site_type_symbol
        _atom_site_fract_x
        _atom_site_fract_y
        _atom_site_fract_z
        _atom_site_U_iso_or_equiv
        _atom_site_thermal_displace_type
        _atom_site_occupancy
        Zn1 Zn2+ 0 0 0 0 Uani 1
        Ga1 Ga3+ 0.625 0.625 0.625 0 Uani 1
        O1 O2- 0.38673 0.38673 0.38673 0 Uani 1

loop_
        _atom_site_aniso_label
        _atom_site_aniso_U_11
        _atom_site_aniso_U_22
        _atom_site_aniso_U_33
        _atom_site_aniso_U_12
        _atom_site_aniso_U_13
        _atom_site_aniso_U_23
        Zn1 0.00452 0.00452 0.00452 0 0 0
        Ga1 0.00354 0.00354 0.00354 -0.00051 -0.00051 -0.00051
        O1 0.00472 0.00472 0.00472 -0.00037 -0.00037 -0.00037

_eof

#### End of Crystallographic Information File ####
